Info: SIMULATION PARAMETERS:
Info: TIMESTEP               2
Info: NUMBER OF STEPS        0
Info: STEPS PER CYCLE        20
Info: PERIODIC CELL BASIS 1  62.988 0 0
Info: PERIODIC CELL BASIS 2  0 67.014 0
Info: PERIODIC CELL BASIS 3  0 0 60.295
Info: PERIODIC CELL CENTER   0.74 1.8 0.54
Info: WRAPPING WATERS AROUND PERIODIC BOUNDARIES ON OUTPUT.
Info: WRAPPING ALL CLUSTERS AROUND PERIODIC BOUNDARIES ON OUTPUT.
Info: FIRST LDB TIMESTEP     100
Info: LAST LDB TIMESTEP     -1
Info: HOM BACKGROUND SCALING 1
Info: PME BACKGROUND SCALING 1
Info: MIN ATOMS PER PATCH    40
Info: INITIAL TEMPERATURE    310
Info: CENTER OF MASS MOVING INITIALLY? NO
Info: DIELECTRIC             1
Info: EXCLUDE                SCALED ONE-FOUR
Info: 1-4 ELECTROSTATICS SCALED BY 1
Info: MODIFIED 1-4 VDW PARAMETERS WILL BE USED
Info: DCD FILENAME           output.dcd
Info: DCD FREQUENCY          2000
Info: DCD FIRST STEP         2000
Info: DCD FILE WILL CONTAIN UNIT CELL DATA
Info: XST FILENAME           output.xst
Info: XST FREQUENCY          2000
Info: NO VELOCITY DCD OUTPUT
Info: NO FORCE DCD OUTPUT
Info: OUTPUT FILENAME        output
Info: BINARY OUTPUT FILES WILL BE USED
Info: RESTART FILENAME       output.restart
Info: RESTART FREQUENCY      1000
Info: BINARY RESTART FILES WILL BE USED
Info: SWITCHING ACTIVE
Info: SWITCHING ON           8
Info: SWITCHING OFF          10
Info: PAIRLIST DISTANCE      12
Info: PAIRLIST SHRINK RATE   0.01
Info: PAIRLIST GROW RATE     0.01
Info: PAIRLIST TRIGGER       0.3
Info: PAIRLISTS PER CYCLE    2
Info: PAIRLISTS ENABLED
Info: MARGIN                 0
Info: HYDROGEN GROUP CUTOFF  2.5
Info: PATCH DIMENSION        14.5
Info: ENERGY OUTPUT STEPS    1000
Info: CROSSTERM ENERGY INCLUDED IN DIHEDRAL
Info: TIMING OUTPUT STEPS    10000
Info: PRESSURE OUTPUT STEPS  1000
Info: HARMONIC CONSTRAINTS ACTIVE
Info: HARMONIC CONS EXP      2
Info: HARMONIC CONS SCALING  2
Info: LANGEVIN DYNAMICS ACTIVE
Info: LANGEVIN TEMPERATURE   310
Info: LANGEVIN USING BBK INTEGRATOR
Info: LANGEVIN DAMPING COEFFICIENT IS 1 INVERSE PS
Info: LANGEVIN DYNAMICS APPLIED TO HYDROGENS
Info: PARTICLE MESH EWALD (PME) ACTIVE
Info: PME TOLERANCE               1e-06
Info: PME EWALD COEFFICIENT       0.312341
Info: PME INTERPOLATION ORDER     4
Info: PME GRID DIMENSIONS         64 72 64
Info: PME MAXIMUM GRID SPACING    1
Info: FULL ELECTROSTATIC EVALUATION FREQUENCY      2
Info: USING VERLET I (r-RESPA) MTS SCHEME.
Info: C1 SPLITTING OF LONG RANGE ELECTROSTATICS
Info: PLACING ATOMS IN PATCHES BY HYDROGEN GROUPS
Info: RIGID BONDS TO HYDROGEN : ALL
Info:         ERROR TOLERANCE : 1e-08
Info:          MAX ITERATIONS : 100
Info: RIGID WATER USING SETTLE ALGORITHM
Info: RANDOM NUMBER SEED     1497728711
Info: USE HYDROGEN BONDS?    NO
Info: COORDINATE PDB         ionized.pdb
Info: STRUCTURE FILE         ionized.psf
Info: PARAMETER file: CHARMM format!
Info: PARAMETERS             c36_prot.prm
Info: USING ARITHMETIC MEAN TO COMBINE L-J SIGMA PARAMETERS
Info: NAMD 2.10 for MacOSX-x86_64-multicore
Info: Please visit http://www.ks.uiuc.edu/Research/namd/
Info: for updates, documentation, and support information.
Info: Please cite Phillips et al., J. Comp. Chem. 26:1781-1802 (2005)
Info: in all publications reporting results obtained with NAMD.
Info: Based on Charm++/Converse 60601 for multicore-darwin-x86_64
Info: Built Tue Dec 9 15:31:59 CST 2014 by jim on melbourne.ks.uiuc.edu
Info: 1 NAMD  2.10  MacOSX-x86_64-multicore  1    mmravic.local  mmravic
Info: Running on 1 processors, 1 nodes, 1 physical nodes.
Info: CPU topology information available.
Info: Charm++/Converse parallel runtime startup completed at 0.00397182 s
Info: 2428.12 MB of memory in use based on ps
Info: Configuration file is init_BundleRealx.conf
Info: Working in the current directory /Users/mmravic/diRh-bundle/4pep_modelBuilding/relax_init
TCL: Suspending until startup complete.
Info: SIMULATION PARAMETERS:
Info: TIMESTEP               2
Info: NUMBER OF STEPS        0
Info: STEPS PER CYCLE        20
Info: PERIODIC CELL BASIS 1  62.988 0 0
Info: PERIODIC CELL BASIS 2  0 67.014 0
Info: PERIODIC CELL BASIS 3  0 0 60.295
Info: PERIODIC CELL CENTER   0.74 1.8 0.54
Info: WRAPPING WATERS AROUND PERIODIC BOUNDARIES ON OUTPUT.
Info: WRAPPING ALL CLUSTERS AROUND PERIODIC BOUNDARIES ON OUTPUT.
Info: FIRST LDB TIMESTEP     100
Info: LAST LDB TIMESTEP     -1
Info: HOM BACKGROUND SCALING 1
Info: PME BACKGROUND SCALING 1
Info: MIN ATOMS PER PATCH    40
Info: INITIAL TEMPERATURE    310
Info: CENTER OF MASS MOVING INITIALLY? NO
Info: DIELECTRIC             1
Info: EXCLUDE                SCALED ONE-FOUR
Info: 1-4 ELECTROSTATICS SCALED BY 1
Info: MODIFIED 1-4 VDW PARAMETERS WILL BE USED
Info: DCD FILENAME           output.dcd
Info: DCD FREQUENCY          2000
Info: DCD FIRST STEP         2000
Info: DCD FILE WILL CONTAIN UNIT CELL DATA
Info: XST FILENAME           output.xst
Info: XST FREQUENCY          2000
Info: NO VELOCITY DCD OUTPUT
Info: NO FORCE DCD OUTPUT
Info: OUTPUT FILENAME        output
Info: BINARY OUTPUT FILES WILL BE USED
Info: RESTART FILENAME       output.restart
Info: RESTART FREQUENCY      1000
Info: BINARY RESTART FILES WILL BE USED
Info: SWITCHING ACTIVE
Info: SWITCHING ON           8
Info: SWITCHING OFF          10
Info: PAIRLIST DISTANCE      12
Info: PAIRLIST SHRINK RATE   0.01
Info: PAIRLIST GROW RATE     0.01
Info: PAIRLIST TRIGGER       0.3
Info: PAIRLISTS PER CYCLE    2
Info: PAIRLISTS ENABLED
Info: MARGIN                 0
Info: HYDROGEN GROUP CUTOFF  2.5
Info: PATCH DIMENSION        14.5
Info: ENERGY OUTPUT STEPS    1000
Info: CROSSTERM ENERGY INCLUDED IN DIHEDRAL
Info: TIMING OUTPUT STEPS    10000
Info: PRESSURE OUTPUT STEPS  1000
Info: HARMONIC CONSTRAINTS ACTIVE
Info: HARMONIC CONS EXP      2
Info: HARMONIC CONS SCALING  2
Info: LANGEVIN DYNAMICS ACTIVE
Info: LANGEVIN TEMPERATURE   310
Info: LANGEVIN USING BBK INTEGRATOR
Info: LANGEVIN DAMPING COEFFICIENT IS 1 INVERSE PS
Info: LANGEVIN DYNAMICS APPLIED TO HYDROGENS
Info: PARTICLE MESH EWALD (PME) ACTIVE
Info: PME TOLERANCE               1e-06
Info: PME EWALD COEFFICIENT       0.312341
Info: PME INTERPOLATION ORDER     4
Info: PME GRID DIMENSIONS         64 72 64
Info: PME MAXIMUM GRID SPACING    1
Info: FULL ELECTROSTATIC EVALUATION FREQUENCY      2
Info: USING VERLET I (r-RESPA) MTS SCHEME.
Info: C1 SPLITTING OF LONG RANGE ELECTROSTATICS
Info: PLACING ATOMS IN PATCHES BY HYDROGEN GROUPS
Info: RIGID BONDS TO HYDROGEN : ALL
Info:         ERROR TOLERANCE : 1e-08
Info:          MAX ITERATIONS : 100
Info: RIGID WATER USING SETTLE ALGORITHM
Info: RANDOM NUMBER SEED     1497728770
Info: USE HYDROGEN BONDS?    NO
Info: COORDINATE PDB         ionized.pdb
Info: STRUCTURE FILE         ionized.psf
Info: PARAMETER file: CHARMM format!
Info: PARAMETERS             c36_prot.prm
Info: USING ARITHMETIC MEAN TO COMBINE L-J SIGMA PARAMETERS
Info: SUMMARY OF PARAMETERS:
Info: 135 BONDS
Info: 365 ANGLES
Info: 706 DIHEDRAL
Info: 35 IMPROPER
Info: 6 CROSSTERM
Info: 68 VDW
Info: 2 VDW_PAIRS
Info: 0 NBTHOLE_PAIRS
Info: STRUCTURE SUMMARY:
Info: 23301 ATOMS
Info: 16150 BONDS
Info: 10659 ANGLES
Info: 5104 DIHEDRALS
Info: 436 IMPROPERS
Info: 124 CROSSTERMS
Info: 0 EXCLUSIONS
Info: 12 CONSTRAINTS
Info: 22237 RIGID BONDS
Info: 47666 DEGREES OF FREEDOM
Info: 8139 HYDROGEN GROUPS
Info: 4 ATOMS IN LARGEST HYDROGEN GROUP
Info: 8139 MIGRATION GROUPS
Info: 4 ATOMS IN LARGEST MIGRATION GROUP
Info: TOTAL MASS = 144177 amu
Info: TOTAL CHARGE = 1.37091e-06 e
Info: MASS DENSITY = 0.940699 g/cm^3
Info: ATOM DENSITY = 0.0915524 atoms/A^3
Info: ADDED 31893 IMPLICIT EXCLUSIONS
Info: NONBONDED TABLE R-SQUARED SPACING: 0.0625
Info: NONBONDED TABLE SIZE: 705 POINTS
Info: REMOVING COM VELOCITY 0.00507418 -0.0895146 -0.0724856
TCL: Minimizing for 100 steps
Info: NAMD 2.10 for MacOSX-x86_64-multicore
Info: Please visit http://www.ks.uiuc.edu/Research/namd/
Info: for updates, documentation, and support information.
Info: Please cite Phillips et al., J. Comp. Chem. 26:1781-1802 (2005)
Info: in all publications reporting results obtained with NAMD.
Info: Based on Charm++/Converse 60601 for multicore-darwin-x86_64
Info: Built Tue Dec 9 15:31:59 CST 2014 by jim on melbourne.ks.uiuc.edu
Info: 1 NAMD  2.10  MacOSX-x86_64-multicore  1    mmravic.local  mmravic
Info: Running on 1 processors, 1 nodes, 1 physical nodes.
Info: CPU topology information available.
Info: Charm++/Converse parallel runtime startup completed at 0.00336599 s
Info: 2419.12 MB of memory in use based on ps
Info: Configuration file is init_BundleRealx.conf
Info: Working in the current directory /Users/mmravic/diRh-bundle/4pep_modelBuilding/relax_init
ETITLE: TS BOND ANGLE DIHED IMPRP ELECT VDW BOUNDARY MISC KINETIC TOTAL TEMP POTENTIAL TOTAL3 TEMPAVG PRESSURE GPRESSURE VOLUME PRESSAVG GPRESSAVG
ENERGY: 0 7121.0130 2136.1461 913.2049 16.4498 -77407.6516 899442.1210 0.0000 0.0000 0.0000 832221.2832 0.0000 832221.2832 832221.2832 0.0000 975693.6338 984179.3237 254509.8879 975693.6338 984179.3237
ENERGY: 20 2751.6696 2036.2399 888.4908 18.3844 -82727.8318 8214.0907 0.9944 0.0000 0.0000 -68817.9619 0.0000 -68817.9619 -68817.9619 0.0000 -425.6042 690.4301 254509.8879 -425.6042 690.4301
ENERGY: 40 2163.5167 2981.3841 895.3165 33.8872 -90118.8901 6206.7193 3.2103 0.0000 0.0000 -77834.8559 0.0000 -77834.8559 -77834.8559 0.0000 -3388.7125 -3905.9165 254509.8879 -3388.7125 -3905.9165
ENERGY: 60 3596.3471 2391.4390 918.7099 30.3598 -94569.2514 6000.6133 4.0863 0.0000 0.0000 -81627.6959 0.0000 -81627.6959 -81627.6959 0.0000 -7870.9968 -5463.9069 254509.8879 -7870.9968 -5463.9069
ENERGY: 80 2591.4825 2623.6432 930.8633 28.6569 -96863.3318 5923.2498 5.5744 0.0000 0.0000 -84759.8618 0.0000 -84759.8618 -84759.8618 0.0000 -6954.8077 -6465.9993 254509.8879 -6954.8077 -6465.9993
ENERGY: 100 2770.8418 2249.7460 945.8043 21.2634 -99160.3065 6087.7618 5.5603 0.0000 0.0000 -87079.3291 0.0000 -87079.3291 -87079.3291 0.0000 -8357.9177 -7038.2128 254509.8879 -8357.9177 -7038.2128
TCL: Suspending until startup complete.
Info: SIMULATION PARAMETERS:
Info: TIMESTEP               2
Info: NUMBER OF STEPS        0
Info: STEPS PER CYCLE        20
Info: PERIODIC CELL BASIS 1  62.988 0 0
Info: PERIODIC CELL BASIS 2  0 67.014 0
Info: PERIODIC CELL BASIS 3  0 0 60.295
Info: PERIODIC CELL CENTER   0.74 1.8 0.54
Info: WRAPPING WATERS AROUND PERIODIC BOUNDARIES ON OUTPUT.
Info: WRAPPING ALL CLUSTERS AROUND PERIODIC BOUNDARIES ON OUTPUT.
Info: FIRST LDB TIMESTEP     100
Info: LAST LDB TIMESTEP     -1
Info: HOM BACKGROUND SCALING 1
Info: PME BACKGROUND SCALING 1
Info: MIN ATOMS PER PATCH    40
Info: INITIAL TEMPERATURE    310
Info: CENTER OF MASS MOVING INITIALLY? NO
Info: DIELECTRIC             1
Info: EXCLUDE                SCALED ONE-FOUR
Info: 1-4 ELECTROSTATICS SCALED BY 1
Info: MODIFIED 1-4 VDW PARAMETERS WILL BE USED
Info: DCD FILENAME           output.dcd
Info: DCD FREQUENCY          2000
Info: DCD FIRST STEP         2000
Info: DCD FILE WILL CONTAIN UNIT CELL DATA
Info: XST FILENAME           output.xst
Info: XST FREQUENCY          2000
Info: NO VELOCITY DCD OUTPUT
Info: NO FORCE DCD OUTPUT
Info: OUTPUT FILENAME        output
Info: BINARY OUTPUT FILES WILL BE USED
Info: RESTART FILENAME       output.restart
Info: RESTART FREQUENCY      1000
Info: BINARY RESTART FILES WILL BE USED
Info: SWITCHING ACTIVE
Info: SWITCHING ON           8
Info: SWITCHING OFF          10
Info: PAIRLIST DISTANCE      12
Info: PAIRLIST SHRINK RATE   0.01
Info: PAIRLIST GROW RATE     0.01
Info: PAIRLIST TRIGGER       0.3
Info: PAIRLISTS PER CYCLE    2
Info: PAIRLISTS ENABLED
Info: MARGIN                 0
Info: HYDROGEN GROUP CUTOFF  2.5
Info: PATCH DIMENSION        14.5
Info: ENERGY OUTPUT STEPS    1000
Info: CROSSTERM ENERGY INCLUDED IN DIHEDRAL
Info: TIMING OUTPUT STEPS    10000
Info: PRESSURE OUTPUT STEPS  1000
Info: HARMONIC CONSTRAINTS ACTIVE
Info: HARMONIC CONS EXP      2
Info: HARMONIC CONS SCALING  2
Info: LANGEVIN DYNAMICS ACTIVE
Info: LANGEVIN TEMPERATURE   310
Info: LANGEVIN USING BBK INTEGRATOR
Info: LANGEVIN DAMPING COEFFICIENT IS 1 INVERSE PS
Info: LANGEVIN DYNAMICS APPLIED TO HYDROGENS
Info: PARTICLE MESH EWALD (PME) ACTIVE
Info: PME TOLERANCE               1e-06
Info: PME EWALD COEFFICIENT       0.312341
Info: PME INTERPOLATION ORDER     4
Info: PME GRID DIMENSIONS         64 72 64
Info: PME MAXIMUM GRID SPACING    1
Info: FULL ELECTROSTATIC EVALUATION FREQUENCY      2
Info: USING VERLET I (r-RESPA) MTS SCHEME.
Info: C1 SPLITTING OF LONG RANGE ELECTROSTATICS
Info: PLACING ATOMS IN PATCHES BY HYDROGEN GROUPS
Info: RIGID BONDS TO HYDROGEN : ALL
Info:         ERROR TOLERANCE : 1e-08
Info:          MAX ITERATIONS : 100
Info: RIGID WATER USING SETTLE ALGORITHM
Info: RANDOM NUMBER SEED     1497728926
Info: USE HYDROGEN BONDS?    NO
Info: COORDINATE PDB         ionized.pdb
Info: STRUCTURE FILE         ionized.psf
Info: PARAMETER file: CHARMM format!
Info: PARAMETERS             c36_prot.prm
Info: USING ARITHMETIC MEAN TO COMBINE L-J SIGMA PARAMETERS
Info: SUMMARY OF PARAMETERS:
Info: 135 BONDS
Info: 365 ANGLES
Info: 706 DIHEDRAL
Info: 35 IMPROPER
Info: 6 CROSSTERM
Info: 68 VDW
Info: 2 VDW_PAIRS
Info: 0 NBTHOLE_PAIRS
Info: STRUCTURE SUMMARY:
Info: 23301 ATOMS
Info: 16150 BONDS
Info: 10659 ANGLES
Info: 5104 DIHEDRALS
Info: 436 IMPROPERS
Info: 124 CROSSTERMS
Info: 0 EXCLUSIONS
Info: 12 CONSTRAINTS
Info: 22237 RIGID BONDS
Info: 47666 DEGREES OF FREEDOM
Info: 8139 HYDROGEN GROUPS
Info: 4 ATOMS IN LARGEST HYDROGEN GROUP
Info: 8139 MIGRATION GROUPS
Info: 4 ATOMS IN LARGEST MIGRATION GROUP
Info: TOTAL MASS = 144177 amu
Info: TOTAL CHARGE = 1.37091e-06 e
Info: MASS DENSITY = 0.940699 g/cm^3
Info: ATOM DENSITY = 0.0915524 atoms/A^3
Info: ADDED 31893 IMPLICIT EXCLUSIONS
Info: NONBONDED TABLE R-SQUARED SPACING: 0.0625
Info: NONBONDED TABLE SIZE: 705 POINTS
Info: REMOVING COM VELOCITY -0.00331907 -0.0646532 -0.0173773
TCL: Minimizing for 100 steps
ETITLE: TS BOND ANGLE DIHED IMPRP ELECT VDW BOUNDARY MISC KINETIC TOTAL TEMP POTENTIAL TOTAL3 TEMPAVG PRESSURE GPRESSURE VOLUME PRESSAVG GPRESSAVG
ENERGY: 0 7121.0130 2136.1461 913.2049 16.4498 -77407.6516 899442.1210 0.0000 0.0000 0.0000 832221.2832 0.0000 832221.2832 832221.2832 0.0000 975693.6338 984179.3237 254509.8879 975693.6338 984179.3237
ENERGY: 20 2751.6696 2036.2399 888.4908 18.3844 -82727.8318 8214.0907 0.9944 0.0000 0.0000 -68817.9619 0.0000 -68817.9619 -68817.9619 0.0000 -425.6042 690.4301 254509.8879 -425.6042 690.4301
ENERGY: 40 2163.5167 2981.3841 895.3165 33.8872 -90118.8901 6206.7193 3.2103 0.0000 0.0000 -77834.8559 0.0000 -77834.8559 -77834.8559 0.0000 -3388.7125 -3905.9165 254509.8879 -3388.7125 -3905.9165
ENERGY: 60 3596.3471 2391.4390 918.7099 30.3598 -94569.2515 6000.6133 4.0863 0.0000 0.0000 -81627.6961 0.0000 -81627.6961 -81627.6961 0.0000 -7870.9967 -5463.9069 254509.8879 -7870.9967 -5463.9069
ENERGY: 80 2591.4822 2623.6432 930.8633 28.6569 -96863.3316 5923.2498 5.5744 0.0000 0.0000 -84759.8619 0.0000 -84759.8619 -84759.8619 0.0000 -6954.8067 -6465.9991 254509.8879 -6954.8067 -6465.9991
ENERGY: 100 2770.8416 2249.7459 945.8043 21.2634 -99160.3062 6087.7617 5.5603 0.0000 0.0000 -87079.3290 0.0000 -87079.3290 -87079.3290 0.0000 -8357.9168 -7038.2128 254509.8879 -8357.9168 -7038.2128
TCL: Running for 500000 steps
ETITLE: TS BOND ANGLE DIHED IMPRP ELECT VDW BOUNDARY MISC KINETIC TOTAL TEMP POTENTIAL TOTAL3 TEMPAVG PRESSURE GPRESSURE VOLUME PRESSAVG GPRESSAVG
ENERGY: 1000 394.0470 1089.1586 1090.4011 69.5367 -91584.9025 7503.8993 4.1824 0.0000 12961.6911 -68471.9863 273.6802 -81433.6774 -68439.0987 224.1701 -1579.2198 -1512.5650 254509.8879 -1912.1368 -1912.0804
ENERGY: 58000 426.3905 1177.4801 1078.5968 79.2723 -88074.6739 6626.0503 10.6321 0.0000 14689.1518 -63987.0999 310.1547 -78676.2517 -63944.8873 309.8034 -1326.5431 -1299.3025 254509.8879 -1290.7289 -1291.2189
ENERGY: 115000 417.0456 1114.4975 1061.4112 85.0835 -88963.4424 6951.9824 6.3517 0.0000 14762.6967 -64564.3737 311.7076 -79327.0704 -64522.1058 309.2501 -527.6029 -466.2594 254509.8879 -680.6227 -680.5265
ENERGY: 171000 416.2459 1151.3948 1074.0161 81.8862 -89085.8090 7011.4549 9.9607 0.0000 14822.7535 -64518.0967 312.9757 -79340.8503 -64473.5048 311.1301 -546.5864 -472.4704 254509.8879 -605.2504 -605.0708
ENERGY: 228000 437.2942 1130.1873 1070.3839 70.7092 -88848.8504 6930.8378 7.1752 0.0000 14760.8062 -64441.4566 311.6677 -79202.2628 -64397.9904 309.6964 -548.8785 -490.8808 254509.8879 -586.6789 -586.9033
ENERGY: 285000 438.6622 1149.3884 1068.7769 72.4652 -88802.2039 6800.3943 4.6006 0.0000 14745.2732 -64522.6431 311.3397 -79267.9163 -64478.9855 309.8589 -967.2589 -889.9819 254509.8879 -716.5227 -716.6624
