Info: SIMULATION PARAMETERS:
Info: TIMESTEP               2
Info: NUMBER OF STEPS        0
Info: STEPS PER CYCLE        20
Info: PERIODIC CELL BASIS 1  31.7 0 0
Info: PERIODIC CELL BASIS 2  0 34.6 0
Info: PERIODIC CELL BASIS 3  0 0 33.9
Info: PERIODIC CELL CENTER   5.8 -3.3 4.4
Info: WRAPPING WATERS AROUND PERIODIC BOUNDARIES ON OUTPUT.
Info: WRAPPING ALL CLUSTERS AROUND PERIODIC BOUNDARIES ON OUTPUT.
Info: FIRST LDB TIMESTEP     100
Info: LAST LDB TIMESTEP     -1
Info: HOM BACKGROUND SCALING 1
Info: PME BACKGROUND SCALING 1
Info: MIN ATOMS PER PATCH    40
Info: INITIAL TEMPERATURE    310
Info: CENTER OF MASS MOVING INITIALLY? NO
Info: DIELECTRIC             1
Info: EXCLUDE                SCALED ONE-FOUR
Info: 1-4 ELECTROSTATICS SCALED BY 1
Info: MODIFIED 1-4 VDW PARAMETERS WILL BE USED
Info: DCD FILENAME           17_output.dcd
Info: DCD FREQUENCY          2000
Info: DCD FIRST STEP         2000
Info: DCD FILE WILL CONTAIN UNIT CELL DATA
Info: XST FILENAME           17_output.xst
Info: XST FREQUENCY          2000
Info: NO VELOCITY DCD OUTPUT
Info: NO FORCE DCD OUTPUT
Info: OUTPUT FILENAME        17_output
Info: BINARY OUTPUT FILES WILL BE USED
Info: RESTART FILENAME       17_output.restart
Info: RESTART FREQUENCY      1000
Info: BINARY RESTART FILES WILL BE USED
Info: SWITCHING ACTIVE
Info: SWITCHING ON           8
Info: SWITCHING OFF          10
Info: PAIRLIST DISTANCE      12
Info: PAIRLIST SHRINK RATE   0.01
Info: PAIRLIST GROW RATE     0.01
Info: PAIRLIST TRIGGER       0.3
Info: PAIRLISTS PER CYCLE    2
Info: PAIRLISTS ENABLED
Info: MARGIN                 0
Info: HYDROGEN GROUP CUTOFF  2.5
Info: PATCH DIMENSION        14.5
Info: ENERGY OUTPUT STEPS    1000
Info: CROSSTERM ENERGY INCLUDED IN DIHEDRAL
Info: TIMING OUTPUT STEPS    10000
Info: PRESSURE OUTPUT STEPS  1000
Info: HARMONIC CONSTRAINTS ACTIVE
Info: HARMONIC CONS EXP      2
Info: HARMONIC CONS SCALING  2
Info: LANGEVIN DYNAMICS ACTIVE
Info: LANGEVIN TEMPERATURE   310
Info: LANGEVIN USING BBK INTEGRATOR
Info: LANGEVIN DAMPING COEFFICIENT IS 1 INVERSE PS
Info: LANGEVIN DYNAMICS APPLIED TO HYDROGENS
Info: PARTICLE MESH EWALD (PME) ACTIVE
Info: PME TOLERANCE               1e-06
Info: PME EWALD COEFFICIENT       0.312341
Info: PME INTERPOLATION ORDER     4
Info: PME GRID DIMENSIONS         32 36 36
Info: PME MAXIMUM GRID SPACING    1
Info: FULL ELECTROSTATIC EVALUATION FREQUENCY      2
Info: USING VERLET I (r-RESPA) MTS SCHEME.
Info: C1 SPLITTING OF LONG RANGE ELECTROSTATICS
Info: PLACING ATOMS IN PATCHES BY HYDROGEN GROUPS
Info: RIGID BONDS TO HYDROGEN : ALL
Info:         ERROR TOLERANCE : 1e-08
Info:          MAX ITERATIONS : 100
Info: RIGID WATER USING SETTLE ALGORITHM
Info: RANDOM NUMBER SEED     1495205363
Info: USE HYDROGEN BONDS?    NO
Info: COORDINATE PDB         17_ionized_input.pdb
Info: STRUCTURE FILE         17_ionized_input.psf
Info: PARAMETER file: CHARMM format!
Info: PARAMETERS             c36_prot.prm
Info: USING ARITHMETIC MEAN TO COMBINE L-J SIGMA PARAMETERS
Info: SUMMARY OF PARAMETERS:
Info: 135 BONDS
Info: 365 ANGLES
Info: 706 DIHEDRAL
Info: 35 IMPROPER
Info: 6 CROSSTERM
Info: 68 VDW
Info: 2 VDW_PAIRS
Info: 0 NBTHOLE_PAIRS
Info: STRUCTURE SUMMARY:
Info: 5454 ATOMS
Info: 3707 BONDS
Info: 2169 ANGLES
Info: 633 DIHEDRALS
Info: 52 IMPROPERS
Info: 15 CROSSTERMS
Info: 0 EXCLUSIONS
Info: 7 CONSTRAINTS
Info: 5307 RIGID BONDS
Info: 11055 DEGREES OF FREEDOM
Info: 1878 HYDROGEN GROUPS
Info: 4 ATOMS IN LARGEST HYDROGEN GROUP
Info: 1878 MIGRATION GROUPS
Info: 4 ATOMS IN LARGEST MIGRATION GROUP
Info: TOTAL MASS = 33552 amu
Info: TOTAL CHARGE = 3.1665e-07 e
Info: MASS DENSITY = 1.49845 g/cm^3
Info: ATOM DENSITY = 0.146683 atoms/A^3
Info: ADDED 6504 IMPLICIT EXCLUSIONS
Info: NONBONDED TABLE R-SQUARED SPACING: 0.0625
Info: NONBONDED TABLE SIZE: 705 POINTS
Info: REMOVING COM VELOCITY 0.0983605 -0.0174643 -0.0565305
TCL: Minimizing for 100 steps
ETITLE: TS BOND ANGLE DIHED IMPRP ELECT VDW BOUNDARY MISC KINETIC TOTAL TEMP POTENTIAL TOTAL3 TEMPAVG PRESSURE GPRESSURE VOLUME PRESSAVG GPRESSAVG
ENERGY: 0 1760.9329 446.8298 133.9315 2.2724 -17412.7942 9999999999.9999 0.0000 0.0000 0.0000 9999999999.9999 0.0000 9999999999.9999 9999999999.9999 0.0000 9999999999.9999 9999999999.9999 37182.1980 9999999999.9999 9999999999.9999
ENERGY: 20 2154.5592 485.9184 132.1391 4.1091 -17490.4091 184413.0760 0.0010 0.0000 0.0000 169699.3937 0.0000 169699.3937 169699.3937 0.0000 1443296.2492 1547782.5812 37182.1980 1443296.2492 1547782.5812
ENERGY: 40 2080.8878 527.2944 131.7681 2.7508 -17679.1312 106470.5465 0.0182 0.0000 0.0000 91534.1345 0.0000 91534.1345 91534.1345 0.0000 851328.9578 874572.6982 37182.1980 851328.9578 874572.6982
ENERGY: 60 1790.3529 794.0036 133.1283 2.2422 -18862.6719 60533.7030 0.1461 0.0000 0.0000 44390.9040 0.0000 44390.9040 44390.9040 0.0000 496225.1251 503123.8753 37182.1980 496225.1251 503123.8753
ENERGY: 80 1478.8093 1098.5008 134.3622 3.3340 -20403.8538 51226.1066 0.3430 0.0000 0.0000 33537.6021 0.0000 33537.6021 33537.6021 0.0000 419004.1829 425013.0424 37182.1980 419004.1829 425013.0424
ENERGY: 100 1191.9168 1420.4662 135.6365 5.0337 -22128.0405 43502.6452 0.7404 0.0000 0.0000 24128.3983 0.0000 24128.3983 24128.3983 0.0000 353774.8169 358905.3058 37182.1980 353774.8169 358905.3058
TCL: Running for 500000 steps
ETITLE: TS BOND ANGLE DIHED IMPRP ELECT VDW BOUNDARY MISC KINETIC TOTAL TEMP POTENTIAL TOTAL3 TEMPAVG PRESSURE GPRESSURE VOLUME PRESSAVG GPRESSAVG
ENERGY: 1000 61.2868 208.4482 195.5421 18.1135 -22266.1263 5558.5740 14.4201 0.0000 6592.4501 -9617.2915 600.1758 -16209.7417 -9588.2600 1161.9504 48856.3701 48992.3509 37182.1980 86665.1244 86668.2245
ENERGY: 101000 53.1217 133.8289 158.5542 10.2469 -24775.0785 4392.9288 8.9350 0.0000 3538.1944 -16479.2686 322.1168 -20017.4630 -16473.3244 312.2487 31239.5243 31462.5987 37182.1980 31898.7086 31898.1850
ENERGY: 201000 55.4408 143.6152 157.2951 8.0044 -24846.8121 4370.0145 5.7995 0.0000 3403.1185 -16703.5241 309.8195 -20106.6426 -16691.0397 306.9339 30799.2679 30975.6857 37182.1980 31498.7049 31499.2011
ENERGY: 300000 40.1599 153.0821 156.7636 13.5933 -24734.8214 4482.9552 7.6935 0.0000 3315.0726 -16565.5012 301.8038 -19880.5739 -16558.5307 313.4691 32196.1736 32332.7583 37182.1980 31739.7293 31740.5447
ENERGY: 400000 56.0410 146.6093 152.4586 9.2606 -24878.5610 4492.9793 6.9730 0.0000 3414.0936 -16600.1456 310.8186 -20014.2392 -16589.4796 309.4163 31760.8243 31902.8477 37182.1980 31784.7804 31785.1451
ENERGY: 500000 57.9453 151.6338 155.7375 9.7401 -24839.3286 4538.0036 7.7925 0.0000 3386.0678 -16532.4081 308.2672 -19918.4759 -16521.1990 311.1067 32258.2520 32367.3259 37182.1980 31831.4067 31830.2554
