Info: SIMULATION PARAMETERS:
Info: TIMESTEP               2
Info: NUMBER OF STEPS        0
Info: STEPS PER CYCLE        20
Info: PERIODIC CELL BASIS 1  31.7 0 0
Info: PERIODIC CELL BASIS 2  0 34.6 0
Info: PERIODIC CELL BASIS 3  0 0 33.9
Info: PERIODIC CELL CENTER   5.8 -3.3 4.4
Info: WRAPPING WATERS AROUND PERIODIC BOUNDARIES ON OUTPUT.
Info: WRAPPING ALL CLUSTERS AROUND PERIODIC BOUNDARIES ON OUTPUT.
Info: FIRST LDB TIMESTEP     100
Info: LAST LDB TIMESTEP     -1
Info: HOM BACKGROUND SCALING 1
Info: PME BACKGROUND SCALING 1
Info: MIN ATOMS PER PATCH    40
Info: INITIAL TEMPERATURE    310
Info: CENTER OF MASS MOVING INITIALLY? NO
Info: DIELECTRIC             1
Info: EXCLUDE                SCALED ONE-FOUR
Info: 1-4 ELECTROSTATICS SCALED BY 1
Info: MODIFIED 1-4 VDW PARAMETERS WILL BE USED
Info: DCD FILENAME           output.dcd
Info: DCD FREQUENCY          2000
Info: DCD FIRST STEP         2000
Info: DCD FILE WILL CONTAIN UNIT CELL DATA
Info: XST FILENAME           output.xst
Info: XST FREQUENCY          2000
Info: NO VELOCITY DCD OUTPUT
Info: NO FORCE DCD OUTPUT
Info: OUTPUT FILENAME        output
Info: BINARY OUTPUT FILES WILL BE USED
Info: RESTART FILENAME       output.restart
Info: RESTART FREQUENCY      1000
Info: BINARY RESTART FILES WILL BE USED
Info: SWITCHING ACTIVE
Info: SWITCHING ON           8
Info: SWITCHING OFF          10
Info: PAIRLIST DISTANCE      12
Info: PAIRLIST SHRINK RATE   0.01
Info: PAIRLIST GROW RATE     0.01
Info: PAIRLIST TRIGGER       0.3
Info: PAIRLISTS PER CYCLE    2
Info: PAIRLISTS ENABLED
Info: MARGIN                 0
Info: HYDROGEN GROUP CUTOFF  2.5
Info: PATCH DIMENSION        14.5
Info: ENERGY OUTPUT STEPS    1000
Info: CROSSTERM ENERGY INCLUDED IN DIHEDRAL
Info: TIMING OUTPUT STEPS    10000
Info: PRESSURE OUTPUT STEPS  1000
Info: HARMONIC CONSTRAINTS ACTIVE
Info: HARMONIC CONS EXP      2
Info: HARMONIC CONS SCALING  2
Info: LANGEVIN DYNAMICS ACTIVE
Info: LANGEVIN TEMPERATURE   310
Info: LANGEVIN USING BBK INTEGRATOR
Info: LANGEVIN DAMPING COEFFICIENT IS 1 INVERSE PS
Info: LANGEVIN DYNAMICS APPLIED TO HYDROGENS
Info: PARTICLE MESH EWALD (PME) ACTIVE
Info: PME TOLERANCE               1e-06
Info: PME EWALD COEFFICIENT       0.312341
Info: PME INTERPOLATION ORDER     4
Info: PME GRID DIMENSIONS         32 36 36
Info: PME MAXIMUM GRID SPACING    1
Info: FULL ELECTROSTATIC EVALUATION FREQUENCY      2
Info: USING VERLET I (r-RESPA) MTS SCHEME.
Info: C1 SPLITTING OF LONG RANGE ELECTROSTATICS
Info: PLACING ATOMS IN PATCHES BY HYDROGEN GROUPS
Info: RIGID BONDS TO HYDROGEN : ALL
Info:         ERROR TOLERANCE : 1e-08
Info:          MAX ITERATIONS : 100
Info: RIGID WATER USING SETTLE ALGORITHM
Info: RANDOM NUMBER SEED     1495205387
Info: USE HYDROGEN BONDS?    NO
Info: COORDINATE PDB         ionized_input.pdb
Info: STRUCTURE FILE         ionized_input.psf
Info: PARAMETER file: CHARMM format!
Info: PARAMETERS             c36_prot.prm
Info: USING ARITHMETIC MEAN TO COMBINE L-J SIGMA PARAMETERS
Info: SUMMARY OF PARAMETERS:
Info: 135 BONDS
Info: 365 ANGLES
Info: 706 DIHEDRAL
Info: 35 IMPROPER
Info: 6 CROSSTERM
Info: 68 VDW
Info: 2 VDW_PAIRS
Info: 0 NBTHOLE_PAIRS
Info: STRUCTURE SUMMARY:
Info: 3301 ATOMS
Info: 2235 BONDS
Info: 1273 ANGLES
Info: 309 DIHEDRALS
Info: 27 IMPROPERS
Info: 7 CROSSTERMS
Info: 0 EXCLUSIONS
Info: 9 CONSTRAINTS
Info: 3225 RIGID BONDS
Info: 6678 DEGREES OF FREEDOM
Info: 1132 HYDROGEN GROUPS
Info: 4 ATOMS IN LARGEST HYDROGEN GROUP
Info: 1132 MIGRATION GROUPS
Info: 4 ATOMS IN LARGEST MIGRATION GROUP
Info: TOTAL MASS = 20283.3 amu
Info: TOTAL CHARGE = 1.45286e-07 e
Info: MASS DENSITY = 0.905864 g/cm^3
Info: ATOM DENSITY = 0.088779 atoms/A^3
Info: ADDED 3817 IMPLICIT EXCLUSIONS
Info: NONBONDED TABLE R-SQUARED SPACING: 0.0625
Info: NONBONDED TABLE SIZE: 705 POINTS
Info: REMOVING COM VELOCITY -0.101021 -0.0336478 0.00710776
TCL: Minimizing for 100 steps
ETITLE: TS BOND ANGLE DIHED IMPRP ELECT VDW BOUNDARY MISC KINETIC TOTAL TEMP POTENTIAL TOTAL3 TEMPAVG PRESSURE GPRESSURE VOLUME PRESSAVG GPRESSAVG
ENERGY: 0 1086.4798 280.4867 66.0803 1.4641 -10610.0769 33635023.8915 0.0000 0.0000 0.0000 33625848.3255 0.0000 33625848.3255 33625848.3255 0.0000 251496934.3392 251502082.0478 37182.1980 251496934.3392 251502082.0478
ENERGY: 20 510.9943 247.5402 64.9940 1.8446 -11627.7302 1188.9524 0.2068 0.0000 0.0000 -9613.1979 0.0000 -9613.1979 -9613.1979 0.0000 -920.2470 -94.5478 37182.1980 -920.2470 -94.5478
ENERGY: 40 317.0041 328.5371 66.5363 5.5585 -12902.4280 963.7984 2.5170 0.0000 0.0000 -11218.4765 0.0000 -11218.4765 -11218.4765 0.0000 -3207.2450 -4346.2846 37182.1980 -3207.2450 -4346.2846
ENERGY: 60 656.6768 353.9986 71.1829 7.0345 -13639.7146 867.8803 3.2561 0.0000 0.0000 -11679.6856 0.0000 -11679.6856 -11679.6856 0.0000 -12338.9021 -6953.2839 37182.1980 -12338.9021 -6953.2839
ENERGY: 80 347.6301 357.3742 69.5106 7.0741 -13881.2276 853.3957 3.3071 0.0000 0.0000 -12242.9359 0.0000 -12242.9359 -12242.9359 0.0000 -7670.3313 -7203.3554 37182.1980 -7670.3313 -7203.3554
ENERGY: 100 348.2794 291.8574 70.7287 7.4276 -14306.0347 915.4741 2.6235 0.0000 0.0000 -12669.6441 0.0000 -12669.6441 -12669.6441 0.0000 -6918.6366 -7350.9336 37182.1980 -6918.6366 -7350.9336
TCL: Running for 500000 steps
ETITLE: TS BOND ANGLE DIHED IMPRP ELECT VDW BOUNDARY MISC KINETIC TOTAL TEMP POTENTIAL TOTAL3 TEMPAVG PRESSURE GPRESSURE VOLUME PRESSAVG GPRESSAVG
ENERGY: 1000 27.2507 83.2923 74.8713 2.4173 -13600.6586 1281.4459 7.7639 0.0000 1884.5965 -10239.0209 284.0288 -12123.6174 -10234.1742 229.7422 -1101.4874 -1038.9654 37182.1980 -2017.6201 -2015.7600
ENERGY: 101000 23.0047 68.1080 75.5412 5.6438 -12978.0216 1104.4857 8.0434 0.0000 2086.8549 -9606.3400 314.5113 -11693.1949 -9601.6719 314.1295 -868.8385 -846.5665 37182.1980 -1296.6553 -1297.5430
ENERGY: 201000 21.2761 97.3864 76.7055 9.5572 -12966.4880 1042.5979 10.0110 0.0000 2063.6187 -9645.3352 311.0093 -11708.9539 -9639.8234 309.7584 -1849.0883 -1737.0192 37182.1980 -1563.1054 -1560.8845
ENERGY: 300000 19.5630 77.0340 81.1663 10.2452 -12874.4696 992.5505 6.4277 0.0000 2034.2152 -9653.2676 306.5779 -11687.4829 -9646.6498 309.6063 -1920.6861 -1920.4495 37182.1980 -1483.5761 -1484.4738
ENERGY: 400000 28.2453 76.1473 83.9040 5.6761 -13003.1929 1084.3869 7.6765 0.0000 2085.6592 -9631.4977 314.3311 -11717.1569 -9626.0776 311.3131 -1638.4519 -1536.0767 37182.1980 -1280.2369 -1280.4171
ENERGY: 500000 22.2597 74.1907 73.3441 9.4265 -12993.8584 1050.4551 8.3289 0.0000 2045.6596 -9710.1936 308.3027 -11755.8532 -9706.5227 313.2574 -1626.2507 -1616.9462 37182.1980 -1569.2515 -1568.7565
