Info: SIMULATION PARAMETERS:
Info: TIMESTEP               2
Info: NUMBER OF STEPS        0
Info: STEPS PER CYCLE        20
Info: PERIODIC CELL BASIS 1  62.988 0 0
Info: PERIODIC CELL BASIS 2  0 67.014 0
Info: PERIODIC CELL BASIS 3  0 0 60.295
Info: PERIODIC CELL CENTER   0.74 1.8 0.54
Info: WRAPPING WATERS AROUND PERIODIC BOUNDARIES ON OUTPUT.
Info: WRAPPING ALL CLUSTERS AROUND PERIODIC BOUNDARIES ON OUTPUT.
Info: FIRST LDB TIMESTEP     100
Info: LAST LDB TIMESTEP     -1
Info: HOM BACKGROUND SCALING 1
Info: PME BACKGROUND SCALING 1
Info: MIN ATOMS PER PATCH    40
Info: INITIAL TEMPERATURE    310
Info: CENTER OF MASS MOVING INITIALLY? NO
Info: DIELECTRIC             1
Info: EXCLUDE                SCALED ONE-FOUR
Info: 1-4 ELECTROSTATICS SCALED BY 1
Info: MODIFIED 1-4 VDW PARAMETERS WILL BE USED
Info: DCD FILENAME           output.dcd
Info: DCD FREQUENCY          2000
Info: DCD FIRST STEP         2000
Info: DCD FILE WILL CONTAIN UNIT CELL DATA
Info: XST FILENAME           output.xst
Info: XST FREQUENCY          2000
Info: NO VELOCITY DCD OUTPUT
Info: NO FORCE DCD OUTPUT
Info: OUTPUT FILENAME        output
Info: BINARY OUTPUT FILES WILL BE USED
Info: RESTART FILENAME       output.restart
Info: RESTART FREQUENCY      1000
Info: BINARY RESTART FILES WILL BE USED
Info: SWITCHING ACTIVE
Info: SWITCHING ON           8
Info: SWITCHING OFF          10
Info: PAIRLIST DISTANCE      12
Info: PAIRLIST SHRINK RATE   0.01
Info: PAIRLIST GROW RATE     0.01
Info: PAIRLIST TRIGGER       0.3
Info: PAIRLISTS PER CYCLE    2
Info: PAIRLISTS ENABLED
Info: MARGIN                 0
Info: HYDROGEN GROUP CUTOFF  2.5
Info: PATCH DIMENSION        14.5
Info: ENERGY OUTPUT STEPS    1000
Info: CROSSTERM ENERGY INCLUDED IN DIHEDRAL
Info: TIMING OUTPUT STEPS    10000
Info: PRESSURE OUTPUT STEPS  1000
Info: HARMONIC CONSTRAINTS ACTIVE
Info: HARMONIC CONS EXP      2
Info: HARMONIC CONS SCALING  2
Info: LANGEVIN DYNAMICS ACTIVE
Info: LANGEVIN TEMPERATURE   310
Info: LANGEVIN USING BBK INTEGRATOR
Info: LANGEVIN DAMPING COEFFICIENT IS 1 INVERSE PS
Info: LANGEVIN DYNAMICS APPLIED TO HYDROGENS
Info: PARTICLE MESH EWALD (PME) ACTIVE
Info: PME TOLERANCE               1e-06
Info: PME EWALD COEFFICIENT       0.312341
Info: PME INTERPOLATION ORDER     4
Info: PME GRID DIMENSIONS         64 72 64
Info: PME MAXIMUM GRID SPACING    1
Info: FULL ELECTROSTATIC EVALUATION FREQUENCY      2
Info: USING VERLET I (r-RESPA) MTS SCHEME.
Info: C1 SPLITTING OF LONG RANGE ELECTROSTATICS
Info: PLACING ATOMS IN PATCHES BY HYDROGEN GROUPS
Info: RIGID BONDS TO HYDROGEN : ALL
Info:         ERROR TOLERANCE : 1e-08
Info:          MAX ITERATIONS : 100
Info: RIGID WATER USING SETTLE ALGORITHM
Info: RANDOM NUMBER SEED     1497730614
Info: USE HYDROGEN BONDS?    NO
Info: COORDINATE PDB         ionized.pdb
Info: STRUCTURE FILE         ionized.psf
Info: PARAMETER file: CHARMM format!
Info: PARAMETERS             c36_prot.prm
Info: USING ARITHMETIC MEAN TO COMBINE L-J SIGMA PARAMETERS
Info: SUMMARY OF PARAMETERS:
Info: 135 BONDS
Info: 365 ANGLES
Info: 706 DIHEDRAL
Info: 35 IMPROPER
Info: 6 CROSSTERM
Info: 68 VDW
Info: 2 VDW_PAIRS
Info: 0 NBTHOLE_PAIRS
Info: STRUCTURE SUMMARY:
Info: 23319 ATOMS
Info: 16166 BONDS
Info: 10685 ANGLES
Info: 5140 DIHEDRALS
Info: 436 IMPROPERS
Info: 124 CROSSTERMS
Info: 0 EXCLUSIONS
Info: 12 CONSTRAINTS
Info: 22251 RIGID BONDS
Info: 47706 DEGREES OF FREEDOM
Info: 8145 HYDROGEN GROUPS
Info: 4 ATOMS IN LARGEST HYDROGEN GROUP
Info: 8145 MIGRATION GROUPS
Info: 4 ATOMS IN LARGEST MIGRATION GROUP
Info: TOTAL MASS = 144269 amu
Info: TOTAL CHARGE = 1.37091e-06 e
Info: MASS DENSITY = 0.9413 g/cm^3
Info: ATOM DENSITY = 0.0916232 atoms/A^3
Info: ADDED 31971 IMPLICIT EXCLUSIONS
Info: NONBONDED TABLE R-SQUARED SPACING: 0.0625
Info: NONBONDED TABLE SIZE: 705 POINTS
Info: REMOVING COM VELOCITY -0.0549976 0.109334 0.0308228
TCL: Minimizing for 100 steps
ETITLE: TS BOND ANGLE DIHED IMPRP ELECT VDW BOUNDARY MISC KINETIC TOTAL TEMP POTENTIAL TOTAL3 TEMPAVG PRESSURE GPRESSURE VOLUME PRESSAVG GPRESSAVG
ENERGY: 0 7125.0019 2129.8642 917.2382 16.3960 -77256.9512 882323.2850 0.0000 0.0000 0.0000 815254.8341 0.0000 815254.8341 815254.8341 0.0000 957017.5100 965995.3199 254509.8879 957017.5100 965995.3199
ENERGY: 20 2764.8473 2033.9796 891.9197 18.3866 -82549.5585 8200.7555 0.9898 0.0000 0.0000 -68638.6801 0.0000 -68638.6801 -68638.6801 0.0000 -315.9463 780.6029 254509.8879 -315.9463 780.6029
ENERGY: 40 2170.6978 2947.8307 899.2277 33.5737 -89939.9589 6191.4087 3.1673 0.0000 0.0000 -77694.0530 0.0000 -77694.0530 -77694.0530 0.0000 -3327.4225 -3825.4582 254509.8879 -3327.4225 -3825.4582
ENERGY: 60 3068.9329 2165.6349 919.7146 23.0299 -94017.5770 5987.0783 3.7941 0.0000 0.0000 -81849.3923 0.0000 -81849.3923 -81849.3923 0.0000 -7035.2635 -5324.0901 254509.8879 -7035.2635 -5324.0901
ENERGY: 80 2321.9338 2526.0045 935.2552 26.8284 -96502.4854 5977.2428 5.5617 0.0000 0.0000 -84709.6590 0.0000 -84709.6590 -84709.6590 0.0000 -5803.4399 -6210.2560 254509.8879 -5803.4399 -6210.2560
ENERGY: 100 3014.3659 2289.6774 953.7544 22.7433 -99062.3812 6063.4613 5.5548 0.0000 0.0000 -86712.8242 0.0000 -86712.8242 -86712.8242 0.0000 -9023.5070 -7098.4639 254509.8879 -9023.5070 -7098.4639
TCL: Running for 500000 steps
ETITLE: TS BOND ANGLE DIHED IMPRP ELECT VDW BOUNDARY MISC KINETIC TOTAL TEMP POTENTIAL TOTAL3 TEMPAVG PRESSURE GPRESSURE VOLUME PRESSAVG GPRESSAVG
ENERGY: 1000 407.6715 1123.7474 1078.8448 67.0317 -91870.9329 7773.6078 6.2874 0.0000 13217.1886 -68196.5537 278.8409 -81413.7423 -68158.1693 226.3482 -1512.6300 -1438.2810 254509.8879 -1973.6032 -1973.2867
ENERGY: 57000 425.9952 1171.8014 1095.8790 89.4812 -88319.9144 6881.2266 6.6300 0.0000 14773.1310 -63875.7699 311.6664 -78648.9009 -63832.4932 310.7308 -1173.9256 -1108.4673 254509.8879 -1248.8143 -1248.8720
ENERGY: 113000 393.6792 1169.8388 1057.7737 79.3757 -87982.2169 6662.7746 5.0278 0.0000 14747.8531 -63865.8940 311.1331 -78613.7471 -63824.8570 311.0103 -1187.1447 -1117.9328 254509.8879 -1274.6777 -1274.7195
ENERGY: 169000 453.6547 1207.3472 1092.7785 74.2373 -88194.6860 6690.8958 14.8440 0.0000 14730.7620 -63930.1666 310.7725 -78660.9285 -63888.3633 309.0533 -1261.3399 -1245.2699 254509.8879 -1317.9946 -1317.9822
ENERGY: 225000 412.1884 1179.6513 1081.0976 71.7073 -88206.8379 6624.4584 14.6158 0.0000 14766.5361 -64056.5832 311.5272 -78823.1192 -64010.4677 310.4905 -1349.1716 -1294.9925 254509.8879 -1238.3661 -1238.8932
ENERGY: 281000 434.4614 1169.8109 1082.3850 81.2001 -88479.0534 6856.4044 9.0304 0.0000 14601.7935 -64243.9678 308.0517 -78845.7613 -64202.4543 308.6211 -1328.6343 -1291.8988 254509.8879 -1291.2436 -1291.5075
